   10
-41.6952
O      -1.008082154e+00  -2.666862195e+00   6.543078050e-01
H      -1.883994356e+00  -2.882504940e+00   3.094147494e-01
H      -7.218293666e-01  -3.444274305e+00   1.135541428e+00
O      -2.631878324e+00  -1.050438718e-01  -1.272275330e+00
H      -3.121860313e+00  -9.295580436e-01  -1.159274315e+00
H      -3.196687836e+00   4.602414794e-01  -1.800800385e+00
O      -3.600351978e+00  -2.741743250e+00  -6.112429254e-01
H      -3.742324930e+00  -3.368664085e+00  -1.325212709e+00
H      -4.379100216e+00  -2.815970808e+00  -5.358679912e-02
Cs      1.015529987e-07  -3.820221347e-08  -1.215862465e-07
